<?xml version="1.0" encoding="UTF-8"?>

<!-- generated on 2024-06-03 16:00:23 by Eclipse SUMO netconvert Version 1.11.0
<configuration xmlns:xsi="http://www.w3.org/2001/XMLSchema-instance" xsi:noNamespaceSchemaLocation="http://sumo.dlr.de/xsd/netconvertConfiguration.xsd">

    <input>
        <type-files value="/home/veins/Desktop/paris/sumo-1.11.0/data/typemap/osmNetconvert.typ.xml"/>
        <osm-files value="paris.osm.xml"/>
    </input>

    <output>
        <output-file value="paris.net.xml"/>
    </output>

    <projection>
        <proj.utm value="true"/>
    </projection>

    <processing>
        <geometry.remove value="true"/>
        <roundabouts.guess value="true"/>
    </processing>

    <tls_building>
        <tls.discard-simple value="true"/>
        <tls.join value="true"/>
        <tls.guess-signals value="true"/>
    </tls_building>

    <ramp_guessing>
        <ramps.guess value="true"/>
    </ramp_guessing>

    <edge_removal>
        <remove-edges.by-vclass value="rail,rail_electric,bicycle,pedestrian"/>
        <remove-edges.by-type value="rail,rail_urban,rail_electric,railway.tram,railway.subway"/>
    </edge_removal>

    <junctions>
        <no-internal-links value="true"/>
        <junctions.join value="true"/>
    </junctions>

    <report>
        <aggregate-warnings value="5"/>
    </report>

</configuration>
-->

<net version="1.9" junctionCornerDetail="5" limitTurnSpeed="5.50" xmlns:xsi="http://www.w3.org/2001/XMLSchema-instance" xsi:noNamespaceSchemaLocation="http://sumo.dlr.de/xsd/net_file.xsd">

    <location netOffset="-447358.54,-5409697.98" convBoundary="0.00,0.00,3961.84,1968.39" origBoundary="2.273171,48.803371,2.355460,48.858446" projParameter="+proj=utm +zone=31 +ellps=WGS84 +datum=WGS84 +units=m +no_defs"/>

    <type id="highway.bridleway" priority="1" numLanes="1" speed="2.78" allow="pedestrian" oneway="1" width="2.00"/>
    <type id="highway.bus_guideway" priority="1" numLanes="1" speed="27.78" allow="bus" oneway="1"/>
    <type id="highway.cycleway" priority="1" numLanes="1" speed="8.33" allow="bicycle" oneway="0" width="1.00"/>
    <type id="highway.footway" priority="1" numLanes="1" speed="2.78" allow="pedestrian" oneway="1" width="2.00"/>
    <type id="highway.ford" priority="1" numLanes="1" speed="2.78" allow="army" oneway="0"/>
    <type id="highway.living_street" priority="2" numLanes="1" speed="2.78" disallow="tram rail_urban rail rail_electric rail_fast ship" oneway="0"/>
    <type id="highway.motorway" priority="14" numLanes="2" speed="39.44" allow="private emergency authority army vip passenger hov taxi bus coach delivery truck trailer motorcycle evehicle custom1 custom2" oneway="1"/>
    <type id="highway.motorway_link" priority="9" numLanes="1" speed="22.22" allow="private emergency authority army vip passenger hov taxi bus coach delivery truck trailer motorcycle evehicle custom1 custom2" oneway="1"/>
    <type id="highway.path" priority="1" numLanes="1" speed="2.78" allow="pedestrian bicycle" oneway="0" width="2.00"/>
    <type id="highway.pedestrian" priority="1" numLanes="1" speed="2.78" allow="pedestrian" oneway="1" width="2.00"/>
    <type id="highway.primary" priority="12" numLanes="2" speed="27.78" disallow="tram rail_urban rail rail_electric rail_fast ship" oneway="0"/>
    <type id="highway.primary_link" priority="7" numLanes="1" speed="22.22" disallow="tram rail_urban rail rail_electric rail_fast ship" oneway="0"/>
    <type id="highway.raceway" priority="15" numLanes="2" speed="83.33" allow="vip" oneway="0"/>
    <type id="highway.residential" priority="3" numLanes="1" speed="13.89" disallow="tram rail_urban rail rail_electric rail_fast ship" oneway="0"/>
    <type id="highway.secondary" priority="11" numLanes="1" speed="27.78" disallow="tram rail_urban rail rail_electric rail_fast ship" oneway="0"/>
    <type id="highway.secondary_link" priority="6" numLanes="1" speed="22.22" disallow="tram rail_urban rail rail_electric rail_fast ship" oneway="0"/>
    <type id="highway.service" priority="1" numLanes="1" speed="5.56" allow="pedestrian delivery bicycle" oneway="0"/>
    <type id="highway.stairs" priority="1" numLanes="1" speed="1.39" allow="pedestrian" oneway="1" width="2.00"/>
    <type id="highway.step" priority="1" numLanes="1" speed="1.39" allow="pedestrian" oneway="1" width="2.00"/>
    <type id="highway.steps" priority="1" numLanes="1" speed="1.39" allow="pedestrian" oneway="1" width="2.00"/>
    <type id="highway.tertiary" priority="10" numLanes="1" speed="22.22" disallow="tram rail_urban rail rail_electric rail_fast ship" oneway="0"/>
    <type id="highway.tertiary_link" priority="5" numLanes="1" speed="22.22" disallow="tram rail_urban rail rail_electric rail_fast ship" oneway="0"/>
    <type id="highway.track" priority="1" numLanes="1" speed="5.56" allow="pedestrian motorcycle moped bicycle" oneway="0"/>
    <type id="highway.trunk" priority="13" numLanes="2" speed="27.78" disallow="pedestrian bicycle tram rail_urban rail rail_electric rail_fast ship" oneway="0"/>
    <type id="highway.trunk_link" priority="8" numLanes="1" speed="22.22" disallow="pedestrian bicycle tram rail_urban rail rail_electric rail_fast ship" oneway="0"/>
    <type id="highway.unclassified" priority="4" numLanes="1" speed="13.89" disallow="tram rail_urban rail rail_electric rail_fast ship" oneway="0"/>
    <type id="highway.unsurfaced" priority="1" numLanes="1" speed="8.33" disallow="tram rail_urban rail rail_electric rail_fast ship" oneway="0"/>
    <type id="railway.highspeed" priority="21" numLanes="1" speed="69.44" allow="rail_fast" oneway="1"/>
    <type id="railway.light_rail" priority="19" numLanes="1" speed="27.78" allow="rail_urban" oneway="1"/>
    <type id="railway.preserved" priority="16" numLanes="1" speed="27.78" allow="rail" oneway="1"/>
    <type id="railway.rail" priority="20" numLanes="1" speed="44.44" allow="rail" oneway="1"/>
    <type id="railway.subway" priority="18" numLanes="1" speed="27.78" allow="rail_urban" oneway="1"/>
    <type id="railway.tram" priority="17" numLanes="1" speed="13.89" allow="tram" oneway="1"/>

    <edge id="-1012555077#2" from="245925893" to="3724026968" priority="3" type="highway.residential" shape="2027.82,969.54 2031.89,971.09 2078.25,988.33 2088.70,991.86">
        <lane id="-1012555077#2_0" index="0" disallow="tram rail_urban rail rail_electric rail_fast ship" speed="8.33" length="64.84" shape="2032.44,969.59 2078.79,986.82 2086.38,989.39"/>
    </edge>
    <edge id="-1012555080#2" from="25256231" to="1215523373" priority="10" type="highway.tertiary" shape="2265.42,1054.61 2258.18,1052.05 2193.08,1028.70 2188.74,1027.15">
        <lane id="-1012555080#2_0" index="0" disallow="tram rail_urban rail rail_electric rail_fast ship" speed="8.33" length="81.45" shape="2259.61,1054.25 2257.65,1053.56 2192.54,1030.21 2191.01,1029.66"/>
    </edge>
    <edge id="-1012555080#5" from="25256232" to="25256231" priority="10" type="highway.tertiary" shape="2348.18,1083.89 2340.14,1081.05 2273.10,1057.33 2265.42,1054.61">
        <lane id="-1012555080#5_0" index="0" disallow="tram rail_urban rail rail_electric rail_fast ship" speed="8.33" length="87.79" shape="2342.36,1083.53 2339.60,1082.56 2272.56,1058.84 2270.17,1057.99"/>
    </edge>
    <edge id="-1012555080#8" from="cluster_1215523338_4616570" to="25256232" priority="10" type="highway.tertiary" shape="2436.47,1115.14 2429.90,1112.80 2356.17,1086.72 2348.18,1083.89">
        <lane id="-1012555080#8_0" index="0" disallow="tram rail_urban rail rail_electric rail_fast ship" speed="8.33" length="98.13" shape="2430.50,1114.72 2429.37,1114.31 2355.64,1088.23 2352.98,1087.29"/>
    </edge>
    <edge id="-1015202367" from="6996251893" to="25255889" priority="11" type="highway.secondary">
        <lane id="-1015202367_0" index="0" disallow="tram rail_urban rail rail_electric rail_fast ship" speed="8.33" length="34.36" shape="2660.17,1038.89 2682.11,1051.24"/>
    </edge>
    <edge id="-104339988" from="1203839999" to="1203839911" priority="1" type="highway.service" shape="2939.26,1671.35 3003.31,1656.03 3004.66,1661.96 3015.85,1659.54 3027.24,1657.07 3028.37,1656.81 3031.98,1656.03">
        <lane id="-104339988_0" index="0" allow="pedestrian delivery bicycle" speed="5.56" length="99.88" shape="2938.89,1669.79 3004.52,1654.10 3005.87,1660.06 3015.51,1657.97 3026.90,1655.50 3028.03,1655.25 3028.26,1655.20"/>
    </edge>
    <edge id="-105940431#1" from="cluster_6462643364_8115517212" to="470173" priority="11" type="highway.secondary" shape="1331.01,1475.02 1348.44,1458.11 1357.69,1449.24">
        <lane id="-105940431#1_0" index="0" disallow="tram rail_urban rail rail_electric rail_fast ship" speed="8.33" length="37.40" shape="1333.21,1470.66 1347.32,1456.95 1348.65,1455.68"/>
    </edge>
    <edge id="-105940431#10" from="cluster_158835218_2705349618_6473992906_6473992907_6473992908_6473992909_6473992911" to="158834270" priority="11" type="highway.secondary" shape="1148.04,1654.93 1152.17,1650.88 1161.47,1641.77 1171.31,1632.12">
        <lane id="-105940431#10_0" index="0" disallow="tram rail_urban rail rail_electric rail_fast ship" speed="8.33" length="45.39" shape="1146.92,1653.79 1151.05,1649.74 1160.35,1640.63 1166.23,1634.86"/>
    </edge>
    <edge id="-105940431#13" from="158834766" to="cluster_158835218_2705349618_6473992906_6473992907_6473992908_6473992909_6473992911" priority="11" type="highway.secondary" shape="1099.79,1702.25 1112.21,1690.07 1126.61,1675.95 1134.78,1667.94">
        <lane id="-105940431#13_0" index="0" disallow="tram rail_urban rail rail_electric rail_fast ship" speed="8.33" length="60.50" shape="1102.70,1697.16 1111.09,1688.93 1125.49,1674.81 1133.66,1666.80"/>
    </edge>
    <edge id="-105940431#14" from="158834623" to="158834766" priority="11" type="highway.secondary" shape="1045.67,1755.32 1063.31,1738.03 1068.70,1732.74 1093.31,1708.60 1099.79,1702.25">
        <lane id="-105940431#14_0" index="0" disallow="tram rail_urban rail rail_electric rail_fast ship" speed="8.33" length="75.81" shape="1048.66,1750.15 1062.19,1736.88 1067.58,1731.60 1092.19,1707.46 1096.17,1703.56"/>
    </edge>
    <edge id="-105940431#17" from="21346784" to="158834623" priority="11" type="highway.secondary" shape="982.21,1817.56 988.54,1811.35 990.99,1808.96 992.15,1807.50 994.92,1804.76 1045.67,1755.32">
        <lane id="-105940431#17_0" index="0" disallow="tram rail_urban rail rail_electric rail_fast ship" speed="8.33" length="88.90" shape="981.08,1816.42 987.42,1810.20 989.80,1807.88 990.96,1806.43 993.80,1803.62 1040.64,1757.98"/>
    </edge>
    <edge id="-105940431#2" from="94267106" to="cluster_6462643364_8115517212" priority="11" type="highway.secondary" shape="1310.61,1495.01 1316.78,1488.98 1331.01,1475.02">
        <lane id="-105940431#2_0" index="0" disallow="tram rail_urban rail rail_electric rail_fast ship" speed="8.33" length="28.80" shape="1313.49,1489.96 1315.66,1487.84 1324.25,1479.41"/>
    </edge>
    <edge id="-105940431#5" from="cluster_249578857_94267505" to="94267106" priority="11" type="highway.secondary" shape="1242.34,1562.47 1244.38,1560.45 1306.87,1498.65 1310.61,1495.01">
        <lane id="-105940431#5_0" index="0" disallow="tram rail_urban rail rail_electric rail_fast ship" speed="8.33" length="103.61" shape="1244.38,1558.20 1305.60,1497.66"/>
    </edge>
    <edge id="-105940431#8" from="158834270" to="cluster_249578857_94267505" priority="11" type="highway.secondary" shape="1171.31,1632.12 1226.60,1577.89 1231.43,1573.15">
        <lane id="-105940431#8_0" index="0" disallow="tram rail_urban rail rail_electric rail_fast ship" speed="8.33" length="91.85" shape="1173.43,1627.80 1225.48,1576.75 1226.33,1575.92"/>
    </edge>
    <edge id="-105940452" from="1219877241" to="1219877396" priority="1" type="highway.service">
        <lane id="-105940452_0" index="0" allow="pedestrian delivery bicycle" speed="8.33" length="22.82" shape="1668.26,1323.04 1682.35,1337.45"/>
    </edge>
    <edge id="-1064517941" from="8894287725" to="130096200" priority="11" type="highway.secondary">
        <lane id="-1064517941_0" index="0" allow="bus bicycle" speed="8.33" length="27.02" shape="2282.18,852.24 2297.83,859.14"/>
    </edge>
    <edge id="-1066240057#2" from="11524677783" to="9791185318" priority="12" type="highway.primary" shape="2366.06,1641.88 2370.63,1694.85 2371.21,1701.49 2371.66,1706.76 2372.82,1720.14 2374.65,1741.25 2381.45,1819.42 2382.97,1837.56 2389.29,1911.20">
        <lane id="-1066240057#2_0" index="0" disallow="tram rail_urban rail rail_electric rail_fast ship" speed="8.33" length="270.31" shape="2371.23,1645.98 2375.41,1694.44 2375.99,1701.08 2376.45,1706.34 2377.60,1719.73 2379.43,1740.83 2386.23,1819.00 2387.75,1837.15 2394.07,1910.78"/>
        <lane id="-1066240057#2_1" index="1" disallow="tram rail_urban rail rail_electric rail_fast ship" speed="8.33" length="270.31" shape="2368.05,1646.26 2372.23,1694.71 2372.80,1701.35 2373.26,1706.62 2374.41,1720.00 2376.24,1741.11 2383.05,1819.28 2384.56,1837.42 2390.88,1911.06"/>
    </edge>
    <edge id="-1066240057#3" from="5586019393" to="11524677783" priority="12" type="highway.primary">
        <lane id="-1066240057#3_0" index="0" disallow="tram rail_urban rail rail_electric rail_fast ship" speed="8.33" length="116.40" shape="2361.12,1528.96 2370.42,1636.62"/>
        <lane id="-1066240057#3_1" index="1" disallow="tram rail_urban rail rail_electric rail_fast ship" speed="8.33" length="116.40" shape="2357.93,1529.24 2367.24,1636.89"/>
    </edge>
    <edge id="-10665106#2" from="cluster_1260668947_177690284_94260793" to="25287820" priority="3" type="highway.residential" shape="1933.85,1174.67 1933.91,1154.35 1932.91,1052.71 1932.83,1044.31">
        <lane id="-10665106#2_0" index="0" disallow="tram rail_urban rail rail_electric rail_fast ship" speed="8.33" length="130.39" shape="1932.28,1163.09 1932.31,1154.36 1931.31,1052.72 1931.29,1051.25"/>
    </edge>
    <edge id="-10665122#2" from="cluster_1260668947_177690284_94260793" to="25287818" priority="3" type="highway.residential" shape="1933.85,1174.67 1917.45,1158.60 1848.14,1090.46 1842.51,1085.47">
        <lane id="-10665122#2_0" index="0" disallow="tram rail_urban rail rail_electric rail_fast ship" speed="8.33" length="127.91" shape="1924.46,1167.71 1916.33,1159.75 1847.05,1091.63 1846.76,1091.37"/>
    </edge>
    <edge id="-10665127#2" from="94261410" to="94260586" priority="3" type="highway.residential" shape="2002.38,1016.44 1999.40,1025.01 1988.48,1056.43 1986.10,1063.26">
        <lane id="-10665127#2_0" index="0" disallow="tram rail_urban rail rail_electric rail_fast ship" speed="8.33" length="49.58" shape="2001.52,1023.80 2000.91,1025.54 1989.99,1056.95 1988.64,1060.85"/>
    </edge>
    <edge id="-10665127#5" from="245925859" to="94261410" priority="3" type="highway.residential" shape="2017.24,973.72 2015.41,979.00 2005.28,1008.33 2002.38,1016.44">
        <lane id="-10665127#5_0" index="0" disallow="tram rail_urban rail rail_electric rail_fast ship" speed="8.33" length="45.22" shape="2017.33,978.32 2016.92,979.52 2006.79,1008.86 2006.32,1010.17"/>
    </edge>
    <edge id="-10665137#1" from="94261348" to="25287819" priority="3" type="highway.residential" shape="1904.48,981.37 1890.02,1022.76 1887.86,1028.93">
        <lane id="-10665137#1_0" index="0" disallow="tram rail_urban rail rail_electric rail_fast ship" speed="8.33" length="50.38" shape="1903.61,988.73 1891.53,1023.29 1891.23,1024.13"/>
    </edge>
    <edge id="-10665137#3" from="230350267" to="94261348" priority="3" type="highway.residential" shape="1922.13,931.94 1918.75,941.41 1904.48,981.37">
        <lane id="-10665137#3_0" index="0" disallow="tram rail_urban rail rail_electric rail_fast ship" speed="8.33" length="52.49" shape="1921.21,939.27 1920.26,941.95 1908.41,975.14"/>
    </edge>
    <edge id="-10665137#4" from="245925171" to="230350267" priority="3" type="highway.residential">
        <lane id="-10665137#4_0" index="0" disallow="tram rail_urban rail rail_electric rail_fast ship" speed="8.33" length="25.70" shape="1921.49,916.15 1921.90,919.05"/>
    </edge>
    <edge id="-10665141#2" from="94261410" to="94261348" priority="3" type="highway.residential" shape="2002.38,1016.44 1994.35,1013.48 1911.81,984.02 1904.48,981.37">
        <lane id="-10665141#2_0" index="0" disallow="tram rail_urban rail rail_electric rail_fast ship" speed="8.33" length="103.99" shape="1995.04,1015.44 1993.81,1014.99 1911.27,985.52 1910.74,985.33"/>
    </edge>
    <edge id="-10665141#5" from="130096473" to="94261410" priority="3" type="highway.residential" shape="2082.32,1045.52 2073.64,1042.47 2010.10,1019.23 2002.38,1016.44">
        <lane id="-10665141#5_0" index="0" disallow="tram rail_urban rail rail_electric rail_fast ship" speed="8.33" length="85.07" shape="2074.86,1044.59 2073.10,1043.98 2009.55,1020.74 2008.64,1020.41"/>
    </edge>
    <edge id="-10665149#0" from="230350267" to="94261495" priority="3" type="highway.residential">
        <lane id="-10665149#0_0" index="0" disallow="tram rail_urban rail rail_electric rail_fast ship" speed="8.33" length="21.52" shape="1911.54,924.59 1910.68,923.83"/>
    </edge>
    <edge id="-10665149#3" from="245925892" to="230350267" priority="3" type="highway.residential" shape="2011.87,964.48 2008.31,963.19 1929.58,934.64 1922.13,931.94">
        <lane id="-10665149#3_0" index="0" disallow="tram rail_urban rail rail_electric rail_fast ship" speed="8.33" length="95.45" shape="2006.06,964.07 1929.03,936.15 1928.37,935.91"/>
    </edge>
    <edge id="-10665166#2" from="94261982" to="94261711" priority="3" type="highway.residential" shape="2037.31,917.80 2030.24,915.34 1958.80,889.93 1945.92,884.64">
        <lane id="-10665166#2_0" index="0" disallow="tram rail_urban rail rail_electric rail_fast ship" speed="8.33" length="97.24" shape="2030.01,916.95 2029.71,916.85 1958.23,891.42 1951.76,888.77"/>
    </edge>
    <edge id="-10665166#5" from="94261984" to="94261982" priority="3" type="highway.residential" shape="2103.34,941.25 2097.19,939.07 2044.94,920.51 2037.31,917.80">
        <lane id="-10665166#5_0" index="0" disallow="tram rail_urban rail rail_electric rail_fast ship" speed="8.33" length="70.07" shape="2096.02,940.35 2044.40,922.02 2043.61,921.74"/>
    </edge>
    <edge id="-1086525508" from="6023277249" to="cluster_9955661537_9955661538" priority="1" type="highway.service" shape="2145.45,464.67 2140.64,475.71 2135.51,487.37 2133.62,491.67">
        <lane id="-1086525508_0" index="0" allow="pedestrian delivery bicycle" speed="5.56" length="30.46" shape="2146.92,465.31 2142.11,476.35 2137.00,487.96"/>
    </edge>
    <edge id="-1094223899" from="5342022624" to="8665588728" priority="1" type="highway.service" shape="1525.97,1723.41 1554.46,1695.36 1517.93,1659.40">
        <lane id="-1094223899_0" index="0" allow="pedestrian delivery bicycle" speed="5.56" length="91.23" shape="1524.85,1722.27 1552.18,1695.36 1516.81,1660.54"/>
    </edge>
    <edge id="-110528888#2" from="470171" to="65311769" priority="3" type="highway.residential" shape="1739.05,1429.68 1763.93,1432.19 1773.69,1433.18 1789.67,1434.77 1804.59,1436.30">
        <lane id="-110528888#2_0" index="0" disallow="tram rail_urban rail rail_electric rail_fast ship" speed="8.33" length="65.88" shape="1751.94,1429.37 1764.09,1430.60 1773.85,1431.59 1789.83,1433.18 1795.71,1433.78"/>
    </edge>
    <edge id="-111548575" from="1293817003" to="11198670206" priority="1" type="highway.service" shape="2311.34,844.21 2317.31,849.39 2322.12,851.61">
        <lane id="-111548575_0" index="0" allow="pedestrian delivery bicycle" speed="5.56" length="13.20" shape="2316.03,846.16 2318.18,848.03 2322.79,850.16"/>
    </edge>
    <edge id="-111548577#1" from="1273534593" to="269070622" priority="1" type="highway.service" shape="2283.34,727.03 2269.37,720.70 2257.18,715.60 2253.90,715.02 2251.29,715.52 2248.79,717.44 2218.31,782.59">
        <lane id="-111548577#1_0" index="0" allow="pedestrian delivery bicycle" speed="5.56" length="109.62" shape="2278.37,726.53 2268.73,722.16 2256.73,717.15 2253.91,716.65 2251.97,717.02 2250.07,718.47 2220.31,782.10"/>
    </edge>
    <edge id="-111548577#3" from="269072834" to="1273534593" priority="1" type="highway.service" shape="2314.16,741.58 2299.07,734.46 2283.34,727.03">
        <lane id="-111548577#3_0" index="0" allow="pedestrian delivery bicycle" speed="5.56" length="34.08" shape="2309.08,740.96 2298.39,735.91 2286.92,730.49"/>
    </edge>
    <edge id="-111548577#5" from="264987923" to="269072834" priority="1" type="highway.service" shape="2343.75,755.05 2324.84,746.44 2314.16,741.58">
        <lane id="-111548577#5_0" index="0" allow="pedestrian delivery bicycle" speed="5.56" length="32.51" shape="2338.80,754.55 2324.18,747.90 2317.68,744.94"/>
    </edge>
    <edge id="-111795318" from="1272900995" to="1272901006" priority="1" type="highway.service">
        <lane id="-111795318_0" index="0" allow="pedestrian delivery bicycle" speed="5.56" length="43.60" shape="2283.32,654.71 2319.09,670.05"/>
    </edge>
    <edge id="-111795319#0" from="264987934" to="269070755" priority="1" type="highway.service" shape="2377.85,678.95 2367.66,702.01 2366.18,705.67">
        <lane id="-111795319#0_0" index="0" allow="pedestrian delivery bicycle" speed="5.56" length="29.16" shape="2377.41,683.91 2369.52,701.77"/>
    </edge>
    <edge id="-111795319#1" from="1272901001" to="264987934" priority="1" type="highway.service">
        <lane id="-111795319#1_0" index="0" allow="pedestrian delivery bicycle" speed="5.56" length="9.84" shape="2369.49,673.53 2374.18,675.60"/>
    </edge>
    <edge id="-111829436" from="1273195546" to="1273195548" priority="1" type="highway.service">
        <lane id="-111829436_0" index="0" allow="pedestrian delivery bicycle" speed="5.56" length="54.44" shape="2427.99,662.94 2470.48,682.10"/>
    </edge>
    <edge id="-111829437" from="1273534647" to="1273195547" priority="1" type="highway.service" shape="2418.30,685.14 2418.26,689.05 2404.63,720.48 2403.46,723.40">
        <lane id="-111829437_0" index="0" allow="pedestrian delivery bicycle" speed="5.56" length="41.32" shape="2419.90,685.16 2419.85,689.39 2406.16,720.96"/>
    </edge>
    <edge id="-111862235#3" from="1273534710" to="269071692" priority="1" type="highway.service" shape="2530.12,721.32 2546.72,728.82 2539.85,743.95 2538.80,746.25 2540.70,748.49 2545.26,752.19 2546.61,754.49 2551.26,763.52 2554.41,769.42">
        <lane id="-111862235#3_0" index="0" allow="pedestrian delivery bicycle" speed="5.56" length="65.68" shape="2530.78,719.86 2548.84,728.02 2541.30,744.62 2540.68,745.99 2541.82,747.35 2546.49,751.13 2548.01,753.72 2552.68,762.78 2553.54,764.38"/>
    </edge>
    <edge id="-111862237" from="1273534589" to="1273534593" priority="1" type="highway.service">
        <lane id="-111862237_0" index="0" allow="pedestrian delivery bicycle" speed="5.56" length="41.90" shape="2264.21,764.35 2279.89,730.65"/>
    </edge>
    <edge id="-111862242" from="1273534649" to="1273534633" priority="1" type="highway.service">
        <lane id="-111862242_0" index="0" allow="pedestrian delivery bicycle" speed="5.56" length="16.29" shape="2464.07,668.25 2474.64,672.88"/>
    </edge>
    <edge id="-1125781533" from="11244226662" to="10343543463" priority="1" type="highway.service" shape="3211.16,1148.12 3208.78,1175.41 3233.42,1183.08 3242.21,1183.81 3243.54,1183.86 3244.69,1183.92 3248.63,1184.10">
        <lane id="-1125781533_0" index="0" allow="pedestrian delivery bicycle" speed="5.56" length="68.45" shape="3212.76,1148.26 3210.48,1174.27 3233.73,1181.50 3242.33,1182.21 3243.61,1182.27 3244.76,1182.32 3245.44,1182.35"/>
    </edge>
    <edge id="-1125781535#1" from="10294659446" to="10294659423" priority="1" type="highway.service" shape="3263.91,1230.00 3248.32,1229.35 3247.27,1229.32 3244.39,1229.25">
        <lane id="-1125781535#1_0" index="0" allow="pedestrian delivery bicycle" speed="5.56" length="19.54" shape="3263.85,1231.60 3248.26,1230.95 3247.67,1230.93"/>
    </edge>
    <edge id="-113521560#2" from="264987923" to="1270627644" priority="1" type="highway.service" shape="2343.75,755.05 2341.32,760.71 2339.66,764.52 2337.96,768.20 2314.05,820.28 2310.44,823.08 2306.68,824.64">
        <lane id="-113521560#2_0" index="0" allow="pedestrian delivery bicycle" speed="5.56" length="80.32" shape="2343.40,759.93 2342.79,761.35 2341.12,765.18 2339.41,768.87 2315.34,821.30 2311.25,824.48 2310.73,824.70"/>
    </edge>
    <edge id="-113521560#3" from="269070913" to="264987923" priority="1" type="highway.service" shape="2362.87,713.14 2352.50,735.70 2343.75,755.05">
        <lane id="-113521560#3_0" index="0" allow="pedestrian delivery bicycle" speed="5.56" length="46.06" shape="2363.05,716.58 2353.96,736.36 2347.15,751.42"/>
    </edge>
    <edge id="-113521560#4" from="269070755" to="269070913" priority="1" type="highway.service">
        <lane id="-113521560#4_0" index="0" allow="pedestrian delivery bicycle" speed="5.56" length="8.17" shape="2365.76,710.56 2365.59,710.94"/>
    </edge>
    <edge id="-113778104#0" from="1270627662" to="8894287725" priority="11" type="highway.secondary" shape="2210.63,821.57 2226.35,828.66 2248.38,838.62 2265.82,846.57 2278.79,852.49">
        <lane id="-113778104#0_0" index="0" allow="bus bicycle" speed="8.33" length="74.84" shape="2214.20,821.42 2227.01,827.21 2249.05,837.16 2266.49,845.12 2271.92,847.60"/>
    </edge>
    <edge id="-113778104#1" from="264987890" to="1270627662" priority="11" type="highway.secondary" shape="2202.10,817.71 2208.43,820.57 2210.63,821.57">
        <lane id="-113778104#1_0" index="0" allow="bus bicycle" speed="8.33" length="9.37" shape="2205.62,817.55 2208.54,818.86"/>
    </edge>
    <edge id="-113778104#4" from="94262351" to="264987890" priority="11" type="highway.secondary" shape="2149.06,793.77 2161.35,799.31 2163.03,800.08 2166.83,801.79 2202.10,817.71">
        <lane id="-113778104#4_0" index="0" allow="bus bicycle" speed="8.33" length="58.19" shape="2157.61,795.87 2162.01,797.86 2163.69,798.62 2167.49,800.33 2199.97,815.00"/>
    </edge>
    <edge id="-113895065#1" from="1291172715" to="1291172629" priority="1" type="highway.service" shape="2180.71,607.68 2183.52,609.32 2188.57,612.27 2190.89,613.61">
        <lane id="-113895065#1_0" index="0" allow="pedestrian delivery bicycle" speed="5.56" length="11.78" shape="2185.71,608.75 2189.37,610.89 2191.69,612.23"/>
    </edge>
    <edge id="-113895072#1" from="1291172739" to="1291172703" priority="1" type="highway.service" shape="2199.87,570.91 2202.73,572.39 2207.59,574.90 2209.97,576.12">
        <lane id="-113895072#1_0" index="0" allow="pedestrian delivery bicycle" speed="5.56" length="11.37" shape="2206.21,572.39 2208.32,573.48 2210.70,574.70"/>
    </edge>
    <edge id="-113895076#1" from="1291172720" to="1291172646" priority="1" type="highway.service" shape="2174.38,619.83 2177.23,621.41 2182.44,624.30 2184.81,625.61">
        <lane id="-113895076#1_0" index="0" allow="pedestrian delivery bicycle" speed="5.56" length="11.93" shape="2179.33,620.74 2183.21,622.90 2185.59,624.21"/>
    </edge>
    <edge id="-113895077#1" from="1291172671" to="1291172717" priority="1" type="highway.service" shape="2144.55,677.10 2153.30,681.52 2155.76,682.76">
        <lane id="-113895077#1_0" index="0" allow="pedestrian delivery bicycle" speed="5.56" length="12.55" shape="2149.50,677.81 2154.02,680.10 2156.48,681.33"/>
    </edge>
    <edge id="-114191429#0" from="1293816950" to="1293817003" priority="1" type="highway.service" shape="2307.00,833.92 2305.21,834.79 2303.78,836.30 2302.98,838.32 2303.03,840.57 2303.96,842.62 2305.44,844.04 2307.44,844.85 2309.50,844.87 2311.34,844.21">
        <lane id="-114191429#0_0" index="0" allow="pedestrian delivery bicycle" speed="5.56" length="18.86" shape="2305.10,837.32 2304.59,838.61 2304.62,840.21 2305.29,841.67 2306.33,842.67 2307.72,843.24"/>
    </edge>
    <edge id="-114191429#2" from="1293817003" to="1293816950" priority="1" type="highway.service" shape="2311.34,844.21 2312.79,843.03 2313.82,841.29 2314.17,839.58 2313.97,837.87 2312.98,835.88 2311.52,834.57 2310.34,834.01 2308.59,833.71 2307.00,833.92">
        <lane id="-114191429#2_0" index="0" allow="pedestrian delivery bicycle" speed="5.56" length="15.99" shape="2307.40,835.48 2311.25,834.99"/>
    </edge>
    <edge id="-114191436" from="1270627644" to="1293816950" priority="1" type="highway.service">
        <lane id="-114191436_0" index="0" allow="pedestrian delivery bicycle" speed="5.56" length="9.29" shape="2308.41,828.30 2308.44,829.28"/>
    </edge>
    <edge id="-114223580" from="1273195546" to="1294173296" priority="1" type="highway.service" shape="2424.49,663.11 2411.69,669.67 2399.56,667.43 2390.58,663.12 2386.03,660.89">
        <lane id="-114223580_0" index="0" allow="pedestrian delivery bicycle" speed="5.56" length="41.74" shape="2421.70,666.34 2411.94,671.34 2399.06,668.96 2389.88,664.56 2389.62,664.43"/>
    </edge>
    <edge id="-114223683" from="269070912" to="1271757243" priority="1" type="highway.service">
        <lane id="-114223683_0" index="0" allow="pedestrian delivery bicycle" speed="5.56" length="5.97" shape="2484.31,763.88 2484.39,763.70"/>
    </edge>
    <edge id="-114223739" from="1273195546" to="1287933944" priority="1" type="highway.service" shape="2424.49,663.11 2421.47,649.07 2412.60,644.53 2402.88,640.05 2401.57,639.50 2396.52,637.54">
        <lane id="-114223739_0" index="0" allow="pedestrian delivery bicycle" speed="5.56" length="41.87" shape="2422.10,659.58 2420.07,650.15 2411.90,645.97 2402.21,641.51 2400.97,640.98 2400.48,640.79"/>
    </edge>
    <edge id="-114231171#1" from="1294327278" to="1294327269" priority="1" type="highway.service" shape="2547.83,920.80 2536.56,907.78 2533.88,904.68">