<?xml version="1.0"?>

<routes> <!-- The opening tag -->

   <!-- Vehicle types -->
   <vType id="passenger" length="5.0" width="2.0" maxSpeed="70.0" accel="2.6" decel="4.5" sigma="0.5"/>

   <!-- Routes + associated vehicles & flows -->
   <route id="trip-0" color="Magenta" edges="1012555082#2 369430658#0 16813370#0 16813370#1 617646465#0 617646465#1 264881744#0 264881744#3 1274069740#1 1274069740#4 105940431#0 105940431#2 -105940431#2"/>
   <vehicle id="vehicle-0" type="passenger" color="Orange" depart="0.0" route="trip-0"/>

   <route id="trip-1" color="Magenta" edges="10665366#0 10664990#3 10664990#5 10664990#7 16811420#0 563922695 -15220512#11 60210478#0"/>
   <vehicle id="vehicle-1" type="passenger" color="Orange" depart="0.01" route="trip-1"/>

   <route id="trip-2" color="Magenta" edges="-51260154#7 -51260154#5 -51260154#3 10665366#0 16809868#0 -1274069740#3 -264881744#3 -264881744#2 -617646465#1 -617646465#0 -110528888#2 -30613136#4 68904247#0 68904247#2 -83590779#2 -83590779#0 -34181371#3 -34181371#1 69401408#0 1208332368#0"/>
   <vehicle id="vehicle-2" type="passenger" color="Orange" depart="0.02" route="trip-2"/>

   <route id="trip-3" color="Magenta" edges="66171623#0 1023806118 193906646#0 678136626 4039685#0 1233994022 1233255713#0 1233255713#2 1064517941 1233994026#0 113778104#1 113778104#2 84686445#0 19514685#0 4040662 731067000 682471313 682471312#0 10665066#3"/>
   <vehicle id="vehicle-3" type="passenger" color="Orange" depart="0.03" route="trip-3"/>

   <route id="trip-4" color="Magenta" edges="707734487#0 4262875#0 4262875#4 4262875#6 20107742#3 20107742#5 20107742#7 20107742#9 1015202275#0 1015202275#1 1015202275#4 -66171617#5 -66171617#3 -66171617#1 -66171617#0 66171623#0 1023806118 193906646#0 678136626 4039685#0 1233994022 1233255713#0 1233255713#2 1064517941 1233994026#0 113778104#1 113778104#2 84686445#0 19514685#0 4040662 731067000 682471313 12206006#0 682471317#0 682471317#2 682471317#3 14316898#0"/>
   <vehicle id="vehicle-4" type="passenger" color="Orange" depart="0.04" route="trip-4"/>

   <route id="trip-5" color="Magenta" edges="-330440863#2 934218600#8 934218600#10 934218600#11 934218600#12 1274069740#1 1274069740#4 105940431#0 105940431#2 16809262#0 16809262#4 15912237#0 15912237#2 15912237#3 327041713#3"/>
   <vehicle id="vehicle-5" type="passenger" color="Orange" depart="0.05" route="trip-5"/>

   <route id="trip-6" color="Magenta" edges="22874654 1012555077#0 1012544429 1012544428 -10665149#3 -10665149#0 934218600#0 934218600#4 934218600#8 934218600#10 934218600#11 934218600#12 1274069740#1 1274069740#4 -879720881#1 -879720882#4"/>
   <vehicle id="vehicle-6" type="passenger" color="Orange" depart="0.06" route="trip-6"/>

   <route id="trip-7" color="Magenta" edges="730189666 16811420#0 563922695 346097693 16811373 563922696 1124089634 25463841#3 25463841#4 25463841#6 682471316#0 682471316#3 682471316#4 682471316#5 -555481956#1 -934218599#2 -10665137#4 10665149#1 22874673 1012544430"/>
   <vehicle id="vehicle-7" type="passenger" color="Orange" depart="0.07" route="trip-7"/>

   <route id="trip-8" color="Magenta" edges="283943974#0 34824657#4 34824657#6 306399168#8 306399168#10 15220512#0 15220512#2 15220512#3 15220512#4 15220512#6 346097693 16811373 563922696 346097694#0 6058075#0 386720789#0 617646466#0 -264881744#3 -264881744#2 12716230"/>
   <vehicle id="vehicle-8" type="passenger" color="Orange" depart="0.08" route="trip-8"/>

   <route id="trip-9" color="Magenta" edges="12347657#5 -12346638#2 34824659#0 12346688#0 14334558#0 83591806#1 83591806#4 83591806#7 83591806#9 16811373 563922696 1124089634 25463841#3 25463841#4 25463841#6 682471316#0 12205671#0"/>
   <vehicle id="vehicle-9" type="passenger" color="Orange" depart="0.09" route="trip-9"/>

   <route id="trip-10" color="Magenta" edges="182518079#0 83591801#0 25463859#0 25463859#3 25463859#4 563922695 346097693 16811373 563922696 1124089634 25463841#3 25463841#4 25463841#6 682471316#0 682471316#3 682471316#4 682471316#5 -555481956#1 -934218599#2 -10665137#4 10665149#1 22874673 1012544430 -1012555077#2 -22874654 1012555079#0 1012555079#1 1064517942 517156315 1064127673 13861913#0 13861913#3"/>
   <vehicle id="vehicle-10" type="passenger" color="Orange" depart="0.1" route="trip-10"/>

   <route id="trip-11" color="Magenta" edges="-571701530#7 571701530#5 571701530#8 242311751#0 666648005#0 666648005#4 83591806#1 83591806#4 83591806#7 83591806#9 16811373 563922696 1124089634 25463841#3 25463841#4 25463841#6 682471316#0 682471316#3 682471316#4 682471316#5 682471315#1 682471315#2 484620588#0 484620590#0 484620587"/>
   <vehicle id="vehicle-11" type="passenger" color="Orange" depart="0.11" route="trip-11"/>

   <route id="trip-12" color="Magenta" edges="83591806#4 83591806#7 83591806#9 16811373 22772276#0 299518564#3 -299518564#3"/>
   <vehicle id="vehicle-12" type="passenger" color="Orange" depart="0.12" route="trip-12"/>

   <route id="trip-13" color="Magenta" edges="707361390#0 706990609#0 706990609#3 706992335#0 706992335#1 1167702152#0 8916961#0 8916961#3 1015206415#0 83590779#0 83590779#1 -68904247#3 -68904247#1 30613136#1 110528888#0 617646465#0 617646465#1 264881744#0 264881744#3 -617646466#2 -386720789#1 264881750#0 730189666 16811420#0 563922695 346097693 -83591806#12 -83591806#8 -83591806#6 -83591806#3 -666648005#5 -666648005#3 242311746#0 242311746#3 -242311753#3 -242311753#2 -242311753#0 -677863762#1 -1186424542 -369289640 888901775 10665441#2 10665441#3 14348895#0 14348895#3 14378654#0"/>
   <vehicle id="vehicle-13" type="passenger" color="Orange" depart="0.13" route="trip-13"/>

   <route id="trip-14" color="Magenta" edges="12347520#0 14316898#0 373285032#0 373285032#2 373285032#4 -299518564#8 12346743#0 -83591806#6 -83591806#3 -14334221#2 -12347639#4 12347657#5"/>
   <vehicle id="vehicle-14" type="passenger" color="Orange" depart="0.14" route="trip-14"/>

   <route id="trip-15" color="Magenta" edges="84686447 484620582 23141371#0"/>
   <vehicle id="vehicle-15" type="passenger" color="Orange" depart="0.15" route="trip-15"/>

   <route id="trip-16" color="Magenta" edges="8058385#0 6057823#0 6057823#2 260872873#0 368416986#0 34181371#0 34181371#2 83590779#0 83590779#1 -68904247#3 -68904247#1 30613136#1 110528888#0 617646465#0 617646465#1 264881744#0 264881744#3 -617646466#2 -386720789#1 264881750#0 730189666 16811420#0 563922695 -15220512#11 -15220512#5 -15220512#3 -15220512#2 -15220512#1 283943974#0"/>
   <vehicle id="vehicle-16" type="passenger" color="Orange" depart="0.16" route="trip-16"/>

   <route id="trip-17" color="Magenta" edges="19514918#4 -19514918#4 -19514918#3 -19514918#2 1276076094#0 666871299#0 666871299#1 1276076092#0 16189550#0 604675750#1 -66171617#5 -66171617#3 -66171617#1 -66171617#0 66171623#0 1023806118 193906646#0 678136626 4039685#0 1233994022 1233255713#0 1233255713#2 1064517941 1233994026#0 113778104#1 113778104#2 84686445#0 484620591#0 84686447 113778102#0 113778102#3 113778102#5 113778102#6 113778102#8 113778102#11 113778102#13 12206274#0"/>
   <vehicle id="vehicle-17" type="passenger" color="Orange" depart="0.17" route="trip-17"/>

   <route id="trip-18" color="Magenta" edges="-682471317#3 -682471317#2 -682471317#1 682471316#0 682471316#3 682471316#4 682471316#5 682471315#1 682471315#2 484620588#0 484620582 23141371#0 83593822#0 83593822#2 83593822#4 1276076093#0 1276076093#2 1276076093#4 1276076094#0 666871299#0 666871299#1 1276076092#0 44840928#0 44840928#2 44840928#3 550244200 673142310#0 4262869#0 707734487#0 4262875#0 4262875#4"/>
   <vehicle id="vehicle-18" type="passenger" color="Orange" depart="0.18" route="trip-18"/>

   <route id="trip-19" color="Magenta" edges="13771287#8 13771287#10 707208314#1 4262892#0 4262892#2"/>
   <vehicle id="vehicle-19" type="passenger" color="Orange" depart="0.19" route="trip-19"/>

   <route id="trip-20" color="Magenta" edges="-14333935#2 -12346638#2 34824659#0 12346688#0 14334558#0 34824657#0 34824657#2 34824657#4 34824657#6 -306399168#6 28297153#0 245258246#3 15808055#4 15808055#7 15808055#8"/>
   <vehicle id="vehicle-20" type="passenger" color="Orange" depart="0.2" route="trip-20"/>

   <route id="trip-21" color="Magenta" edges="16813370#0 16813370#1 617646465#0 16813387#0 16813387#2 -369430658#1 -30613135#4 -30613135#2 -30613135#1 -330440863#4 -330440863#3 -330440863#2 -934218600#7 10665077#10 12206006#0 682471316#0 12205671#0 113778102#11 113778102#13 12206274#0"/>
   <vehicle id="vehicle-21" type="passenger" color="Orange" depart="0.21" route="trip-21"/>

   <route id="trip-22" color="Magenta" edges="15915792#0 51260154#6 182518079#0 83591801#0 25463859#0 10665499#0 60210479#2 15220512#4 60210478#0 -83591806#8 -83591806#6 -83591806#3 -14334221#2 -12347639#4 12347657#5 14333935#0"/>
   <vehicle id="vehicle-22" type="passenger" color="Orange" depart="0.22" route="trip-22"/>

   <route id="trip-23" color="Magenta" edges="10665066#3 -330440863#0 731616724#2 730189665#1 730189665#2 4637447 730189666 16811420#0 563922695 346097693 -83591806#12 -83591806#8 -83591806#6 -83591806#3 -666648005#5 -666648005#3 242311746#0 242311746#3 -242311753#3 -242311753#2 -242311753#0 -677863762#1 -1186424542 -369289640 888901775 10665441#2 10665441#3 1186424543#0 1186424543#1 -28297309#1"/>
   <vehicle id="vehicle-23" type="passenger" color="Orange" depart="0.23" route="trip-23"/>

   <route id="trip-24" color="Magenta" edges="1186424543#0 1186424543#1 1186424543#2 306399168#3 306399168#5 306399168#8 306399168#10 15220512#0 15220512#2 15220512#3 15220512#4 15220512#6 346097693 16811373 563922696 1124089634 25463841#3 25463841#4 25463841#6 682471316#0 682471316#3 682471316#4 682471316#5 -555481956#1 -934218599#2 -10665137#4 10665149#1 22874673 1012544430 -1012555077#2 -22874654 1012555079#0 1012555079#1 1064517942 517156315 8058378 1012555080#0 1012555080#3 1012555080#6 69401399#0 747783903 331201865#1 66171614#0 678136624 678136621#0 678136625#0 -747787712#2 -747787712#1"/>
   <vehicle id="vehicle-24" type="passenger" color="Orange" depart="0.24" route="trip-24"/>

</routes> <!-- The closing tag -->
